project/outputs/reanudacion_20260910/psse_suite/logs/suite_u_genq_5bus_group_one_limited.log
PSSE CLI power-flow run configuration
====================================
RAW file: C:\Users\Santiago\Documents\PROYECTO FINAL DE CARRERA - MATPOWER\auditoria_psse_matpower\psse_validation_suite\suite_u_genq_5bus_group_one_limited.raw
PSSE executable: C:\Program Files (x86)\PTI\PSSE34\PSSBIN\pssecmd34.exe
RAW output version: 34
Solver: FNSL
Solver option array code form: BAT_FNSL 0 0 0 0 0 0 1 0
Solver option array values: 0 0 0 0 0 0 1 0

Explicit solver option parameters:
- Option 1, tap adjustment flag = 0: disable transformer tap adjustment.
- Option 2, area interchange adjustment flag = 0: disable area interchange adjustment.
- Option 3, phase shift adjustment flag = 0: disable phase-shifter adjustment.
- Option 4, DC tap adjustment flag = 0: disable DC tap adjustment.
- Option 5, switched shunt adjustment flag = 0: disable switched-shunt adjustment.
- Option 6, flat start flag = 0: do not flat start; use voltages already present in the RAW/case.
- Option 7, VAR limit flag = 1: apply generator reactive power limits on iteration 1, or sooner if mismatch gets small.
- Option 8, non-divergent solution flag = 0: disable non-divergent Newton solution.

Additional explicit solver parameters:
- RAW GENERAL, THRSHZ=0.0001: set with BAT_SOLUTION_PARAMETERS_4 REALAR(11).
- RAW SOLVER line applied to BAT_FNSL option array: SOLVER, FNSL, ACTAPS=0, AREAIN=0, PHSHFT=0, DCTAPS=0, SWSHNT=0, FLATST=0, VARLIM=1, NONDIV=0
- RAW NEWTON, VCTOLV=0.00001: set with BAT_SOLUTION_PARAMETERS_4 REALAR(18).
- RAW ADJUST, MXTPSS=20: set with BAT_SOLUTION_PARAMETERS_4 INTGAR(4).

Generated PSSE response commands:
  BAT_READ 0 "C:\Users\Santiago\Documents\PROYECTO FINAL DE CARRERA - MATPOWER\auditoria_psse_matpower\psse_validation_suite\suite_u_genq_5bus_group_one_limited.raw"
  BAT_SOLUTION_PARAMETERS_4 100 20 20 20 10 1.6 1.6 1 0.0001 1 0.1 1 1E-05 5 0.7 0.0001 0.005 1 0.05 0.99 0.99 0.1 1E-05 100
  BAT_FNSL 0 0 0 0 0 0 1 0
  BAT_LAMP 0 1
  BAT_POUT 0 1
  BAT_LOUT 0 1
  BAT_VCHK 0 1 0.95 1.05
  BAT_RATE_2 0 1 1 1 1 1 100.0
  BAT_REGB 0 1
  BAT_OUTS 0 1
  BAT_SHNT 0 1 1
  BAT_LIST 0 1 1 0
  BAT_LIST 0 1 2 0
  BAT_LIST 0 1 3 0
  BAT_LIST 0 1 4 0
  BAT_LIST 0 1 5 0
  BAT_LIST 0 1 6 0
  BAT_LIST 0 1 7 0
  BAT_LIST 0 1 10 0
  BAT_LIST 0 1 18 0
  BAT_LIST 0 1 20 0
  BAT_LIST 0 1 27 0
  BAT_LIST 0 1 28 0
  BAT_AREA_2 0 1 2
  BAT_ZONE_2 0 1 2
  BAT_WRITERAWVERSION '34' 0 "C:\Users\Santiago\Documents\PROYECTO FINAL DE CARRERA - MATPOWER\outputs\reanudacion_20260910\psse_suite\solved_raw\suite_u_genq_5bus_group_one_limited_solved.raw"
  BAT_SAVE "C:\Users\Santiago\Documents\PROYECTO FINAL DE CARRERA - MATPOWER\outputs\reanudacion_20260910\psse_suite\suite_u_genq_5bus_group_one_limited.sav"
  STOP

PSSE console output
===================


 PSS(R)E Version 34
 Copyright (c) 1976-2026
 Siemens Industry, Inc.,
 Power Technologies International                            (PTI)
 This program is a confidential  unpublished  work  created  and  first
 licensed in 1976.  It is a trade secret which is the property of  PTI.
 All use,  disclosure,  and/or reproduction not specifically authorized
 by  PTI  is prohibited.   This  program is protected  under  copyright
 laws  of  non-U.S.  countries  and  by  application  of  international
 treaties.  All  Rights  Reserved  Under  The  Copyright  Laws.


           SIEMENS POWER TECHNOLOGIES INTERNATIONAL

      50000 BUS POWER SYSTEM SIMULATOR--PSS(R)E-34.9.3

             INITIATED ON THU, SEP 10 2026  11:24

 ACTIVITY? 
 Reading IC, SBASE, REV, XFRRAT, NXFRAT, BASFRQ...

 Reading two line case heading...

 Reading system-wide data...

 Reading bus data...

 Reading load data...

 Reading fixed bus shunt data...

 Reading generator data...

 Reading non-transformer branch data...

 Reading system switching device data...

 Reading transformer data...

 Reading area interchange data...

 Reading two-terminal dc line data...

 Reading VSC dc line data...

 Reading transformer impedance correction data...

 Reading multi-terminal dc line data...

 Reading multi-section line data...

 Reading zone name data...

 Reading inter-area transfer data...

 Reading owner name data...

 Reading FACTS device data...

 Reading switched shunt data...

 Reading GNE device data...

 Reading induction machine data...

 Reading substation data...
 Batch command complete.
 : 
 No power flow solution parameters changed
 Batch command complete.
 : 
 Ordering network...
 Diagonals = 4   Off-diagonals = 3   Maximum size = 6

  ITER       DELTAP      BUS         DELTAQ      BUS        DELTA/V/      BUS       DELTAANG      BUS
   0         0.0625(      4     )    1.9427(      2     )
                                                             0.04151(      2     )   0.00459(      2     )
   1         0.0096(      4     )    0.0241(      2     )
                                     0.0456(      5     )
                                                             0.00072(      2     )   0.00041(      5     )
   2         0.0000(      4     )    2.0000(      2     )
                                                             0.03755(      3     )   0.00501(      2     )
   3         0.0104(      4     )    0.0707(      2     )
                                                             0.00175(      2     )   0.00043(      5     )
   4         0.0000(      4     )    0.0293(      3     )
                                     0.0294(      5     )
                                                             0.00067(      3     )   0.00009(      3     )
   5         0.0000(      4     )    0.0234(      3     )
                                                             0.00053(      3     )   0.00007(      3     )
   6         0.0000(      4     )    0.0186(      3     )
                                                             0.00042(      3     )   0.00006(      3     )
   7         0.0000(      4     )    0.0148(      3     )
                                                             0.00034(      3     )   0.00004(      3     )
   8         0.0000(      4     )    0.0118(      3     )
                                                             0.00027(      3     )   0.00004(      3     )
   9         0.0000(      4     )    0.0094(      3     )
                                                             0.00021(      3     )   0.00003(      3     )
  10         0.0000(      4     )    0.0075(      3     )
                                                             0.00017(      3     )   0.00002(      3     )
  11         0.0000(      4     )    0.0059(      3     )
                                                             0.00014(      3     )   0.00002(      3     )
  12         0.0000(      4     )    0.0047(      3     )
                                                             0.00011(      3     )   0.00001(      3     )
  13         0.0000(      4     )    0.0038(      3     )
                                                             0.00009(      3     )   0.00001(      3     )
  14         0.0000(      4     )    0.0030(      3     )
                                                             0.00007(      3     )   0.00001(      3     )
  15         0.0000(      4     )    0.0024(      3     )
                                                             0.00005(      3     )   0.00001(      3     )
  16         0.0000(      4     )    0.0019(      3     )
                                                             0.00004(      3     )   0.00001(      3     )
  17         0.0000(      4     )    0.0015(      3     )
                                                             0.00003(      3     )   0.00000(      3     )
  18         0.0000(      4     )    0.0012(      3     )
                                                             0.00003(      3     )   0.00000(      3     )
  19         0.0000(      4     )    0.0010(      3     )


 Reached tolerance in 19 iterations

 Largest mismatch:     -0.00 MW      0.10 Mvar      0.10 MVA at bus 3 [GEN_B_FREE  230.00]
 System total absolute mismatch:                    0.19 MVA

 SWING BUS SUMMARY:
   BUS#-SCT X-- NAME --X BASKV      PGEN     PMAX    PMIN      QGEN     QMAX    QMIN
      1     SLACK       230.00     -56.1    400.0  -100.0    -271.3    400.0  -400.0
 Batch command complete.
 :                                         PTI INTERACTIVE POWER SYSTEM SIMULATOR--PSS(R)E     THU, SEP 10 2026  11:24
                         SUITE_U_GENQ_5BUS_GROUP_ONE_LIMITED                              %MVA FOR TRANSFORMERS
                         PARTIAL GROUPED GENQ LIMIT                                       % I  FOR NON-TRANSFORMER BRANCHES

 X--------- FROM BUS --------X AREA  VOLT            GEN    LOAD    SHUNT  X------------ TO BUS ------------X                     TRANSFORMER            RATING
   BUS#-SCT X-- NAME --X BASKV ZONE  PU/KV  ANGLE  MW/MVAR MW/MVAR MW/MVAR   BUS#-SCT X-- NAME --X BASKV AREA CKT   MW    MVAR   RATIO   ANGLE   AMPS   %  SET 1

      1     SLACK       230.00    1 1.0000    0.0   -56.1      0.0     0.0 -------------------------------------------------------------------------------------
                                  1 230.00         -271.3R     0.0    -0.0      2     GEN_A_LIM   230.00    1  1   -29.8  -71.2                   194  26   753A
                                                                                3     GEN_B_FREE  230.00    1  1   -26.3 -200.1                   507  67   753A
      2     GEN_A_LIM   230.00    1 1.0372    0.6    80.0      0.0     0.0 -------------------------------------------------------------------------------------
                                  1 238.55           20.0H     0.0    -0.0      1     SLACK       230.00    1  1    30.1   74.2                   194  26   753A
                                                                                4     TIE         230.00    1  1    49.9  -54.2                   178  24   753A
      3     GEN_B_FREE  230.00    1 1.1014    0.2    80.0      0.0     0.0 -------------------------------------------------------------------------------------
                                  1 253.32          339.5R     0.0    -0.0      1     SLACK       230.00    1  1    28.4  220.5                   507  67   753A
                                                                                4     TIE         230.00    1  1    51.6  119.1                   296  39   753A
      4     TIE         230.00    1 1.0559   -0.6     0.0      0.0     0.0 -------------------------------------------------------------------------------------
                                  1 242.85            0.0      0.0    -0.0      2     GEN_A_LIM   230.00    1  1   -49.7   56.2                   178  24   753A
                                                                                3     GEN_B_FREE  230.00    1  1   -50.9 -113.5                   296  39   753A
                                                                                5     REMOTE_BUS  230.00    1  1   100.6   57.3                   275  37   753A
      5     REMOTE_BUS  230.00    1 1.0200   -3.6     0.0    100.0     0.0 -------------------------------------------------------------------------------------
                                  1 234.60            0.0     50.0    -0.0      4     TIE         230.00    1  1  -100.0  -50.1                   275  37   753A

 Output completed
 Batch command complete.
 :      PTI INTERACTIVE POWER SYSTEM SIMULATOR--PSS(R)E     THU, SEP 10 2026  11:24
 SUITE_U_GENQ_5BUS_GROUP_ONE_LIMITED                                      RATING   %MVA FOR TRANSFORMERS
 PARTIAL GROUPED GENQ LIMIT                                               SET  1   % I  FOR NON-TRANSFORMER BRANCHES

 BUS      1     SLACK       230.00 CKT     MW     MVAR     MVA   % 1.0000PU    0.00  X--- LOSSES ---X X---- AREA -----X X---- ZONE -----X      1
  FROM GENERATION                        -56.1  -271.3R  277.1 277 230.00KV               MW     MVAR    1 AREA1           1 ZONE1
  TO      2     GEN_A_LIM   230.00  1    -29.8   -71.2    77.2  26                       0.30    2.98    1 AREA1           1 ZONE1
  TO      3     GEN_B_FREE  230.00  1    -26.3  -200.1   201.8  67                       2.04   20.37    1 AREA1           1 ZONE1

 BUS      2     GEN_A_LIM   230.00 CKT     MW     MVAR     MVA   % 1.0372PU    0.63  X--- LOSSES ---X X---- AREA -----X X---- ZONE -----X      2
  FROM GENERATION                         80.0    20.0H   82.5  82 238.55KV               MW     MVAR    1 AREA1           1 ZONE1
  TO      1     SLACK       230.00  1     30.1    74.2    80.1  26                       0.30    2.98    1 AREA1           1 ZONE1
  TO      4     TIE         230.00  1     49.9   -54.2    73.7  24                       0.25    2.02    1 AREA1           1 ZONE1

 BUS      3     GEN_B_FREE  230.00 CKT     MW     MVAR     MVA   % 1.1014PU    0.16  X--- LOSSES ---X X---- AREA -----X X---- ZONE -----X      3
  FROM GENERATION                         80.0   339.5R  348.8 349 253.32KV               MW     MVAR    1 AREA1           1 ZONE1
  TO      1     SLACK       230.00  1     28.4   220.5   222.3  67                       2.04   20.37    1 AREA1           1 ZONE1
  TO      4     TIE         230.00  1     51.6   119.1   129.8  39                       0.69    5.55    1 AREA1           1 ZONE1

 BUS      4     TIE         230.00 CKT     MW     MVAR     MVA   % 1.0559PU   -0.56  X--- LOSSES ---X X---- AREA -----X X---- ZONE -----X      4
                                                                   242.85KV               MW     MVAR    1 AREA1           1 ZONE1
  TO      2     GEN_A_LIM   230.00  1    -49.7    56.2    75.0  24                       0.25    2.02    1 AREA1           1 ZONE1
  TO      3     GEN_B_FREE  230.00  1    -50.9  -113.5   124.4  39                       0.69    5.55    1 AREA1           1 ZONE1
  TO      5     REMOTE_BUS  230.00  1    100.6    57.3   115.8  37                       0.60    7.21    1 AREA1           1 ZONE1

 BUS      5     REMOTE_BUS  230.00 CKT     MW     MVAR     MVA   % 1.0200PU   -3.62  X--- LOSSES ---X X---- AREA -----X X---- ZONE -----X      5
                                                                   234.60KV               MW     MVAR    1 AREA1           1 ZONE1
  TO LOAD-PQ                             100.0    50.0   111.8
  TO      4     TIE         230.00  1   -100.0   -50.1   111.8  37                       0.60    7.21    1 AREA1           1 ZONE1

 Output completed
 Batch command complete.
 :                                         PTI INTERACTIVE POWER SYSTEM SIMULATOR--PSS(R)E     THU, SEP 10 2026  11:24
                         SUITE_U_GENQ_5BUS_GROUP_ONE_LIMITED                              %MVA FOR TRANSFORMERS
                         PARTIAL GROUPED GENQ LIMIT                                       % I  FOR NON-TRANSFORMER BRANCHES

 X--------- FROM BUS --------X AREA  VOLT            GEN    LOAD    SHUNT  X------------ TO BUS ------------X                        TRANSFORMER     RATING
   BUS#-SCT X-- NAME --X BASKV ZONE  PU/KV  ANGLE  MW/MVAR MW/MVAR MW/MVAR   BUS#-SCT X-- NAME --X BASKV AREA CKT    MW     MVAR    RATIO   ANGLE   %  SET 1

      1     SLACK       230.00    1 1.0000    0.0   -56.1      0.0     0.0 ---------------------------------------------------------------------------------
                                  1 230.00         -271.3R     0.0    -0.0      2     GEN_A_LIM   230.00    1  1    -29.8   -71.2                   26   300
                                                                                3     GEN_B_FREE  230.00    1  1    -26.3  -200.1                   67   300
      2     GEN_A_LIM   230.00    1 1.0372    0.6    80.0      0.0     0.0 ---------------------------------------------------------------------------------
                                  1 238.55           20.0H     0.0    -0.0      1     SLACK       230.00    1  1     30.1    74.2                   26   300
                                                                                4     TIE         230.00    1  1     49.9   -54.2                   24   300
      3     GEN_B_FREE  230.00    1 1.1014    0.2    80.0      0.0     0.0 ---------------------------------------------------------------------------------
                                  1 253.32          339.5R     0.0    -0.0      1     SLACK       230.00    1  1     28.4   220.5                   67   300
                                                                                4     TIE         230.00    1  1     51.6   119.1                   39   300
      4     TIE         230.00    1 1.0559   -0.6     0.0      0.0     0.0 ---------------------------------------------------------------------------------
                                  1 242.85            0.0      0.0    -0.0      2     GEN_A_LIM   230.00    1  1    -49.7    56.2                   24   300
                                                                                3     GEN_B_FREE  230.00    1  1    -50.9  -113.5                   39   300
                                                                                5     REMOTE_BUS  230.00    1  1    100.6    57.3                   37   300
      5     REMOTE_BUS  230.00    1 1.0200   -3.6     0.0    100.0     0.0 ---------------------------------------------------------------------------------
                                  1 234.60            0.0     50.0    -0.0      4     TIE         230.00    1  1   -100.0   -50.1                   37   300

 Output completed
 Batch command complete.
 :      PTI INTERACTIVE POWER SYSTEM SIMULATOR--PSS(R)E     THU, SEP 10 2026  11:24
 SUITE_U_GENQ_5BUS_GROUP_ONE_LIMITED
 PARTIAL GROUPED GENQ LIMIT

 BUSES WITH VOLTAGE GREATER THAN 1.0500:

   BUS#-SCT X-- NAME --X BASKV AREA  V(PU)  V(KV)      BUS#-SCT X-- NAME --X BASKV AREA  V(PU)  V(KV)
      3     GEN_B_FREE  230.00    1 1.1014 253.32         4     TIE         230.00    1 1.0559 242.85


 BUSES WITH VOLTAGE LESS THAN 0.9500:

   BUS#-SCT X-- NAME --X BASKV AREA  V(PU)  V(KV)      BUS#-SCT X-- NAME --X BASKV AREA  V(PU)  V(KV)

                                            * NONE *

 Output completed
 Batch command complete.
 :      PTI INTERACTIVE POWER SYSTEM SIMULATOR--PSS(R)E     THU, SEP 10 2026  11:24
 SUITE_U_GENQ_5BUS_GROUP_ONE_LIMITED
 PARTIAL GROUPED GENQ LIMIT

 SUBSYSTEM LOADING CHECK (INCLUDED: LINES; BREAKERS AND SWITCHES; TRANSFORMERS) (EXCLUDED: NONE)
 LOADINGS ABOVE 100.0 % OF RATING SET 1 (MVA FOR TRANSFORMERS, CURRENT FOR NON-TRANSFORMER BRANCHES):

 X----------- FROM BUS ------------X X------------ TO BUS -------------X
   BUS#-SCT X-- NAME --X BASKV  AREA   BUS#-SCT X-- NAME --X BASKV  AREA CKT LOADING   RATE1 PERCENT

                                   * NONE *

 Output completed
 Batch command complete.
 :      PTI INTERACTIVE POWER SYSTEM SIMULATOR--PSS(R)E     THU, SEP 10 2026  11:24
 SUITE_U_GENQ_5BUS_GROUP_ONE_LIMITED
 PARTIAL GROUPED GENQ LIMIT

                                 X--VOLTAGE--X     X--SCHEDULED--X  X--VIOLATION--X
 X------ REGULATED  BUS -------X   P.U.    KV          VOLTAGE        P.U.     KV   X----------------------------- CONTROLLING  EQUIPMENT -----------------------------X
      1     [SLACK       230.00] 1.00000 230.0         1.00000                      LOCAL  GENERATION      1     [SLACK       230.00]

      5     [REMOTE_BUS  230.00] 1.02000 234.6         1.02000                      REMOTE GENERATION      2     [GEN_A_LIM   230.00]
                                                       1.02000                      REMOTE GENERATION      3     [GEN_B_FREE  230.00]

 Output completed
 Batch command complete.
 :      PTI INTERACTIVE POWER SYSTEM SIMULATOR--PSS(R)E     THU, SEP 10 2026  11:24
 SUITE_U_GENQ_5BUS_GROUP_ONE_LIMITED
 PARTIAL GROUPED GENQ LIMIT

 OUT-OF-SERVICE BRANCHES:

 X----------- FROM BUS -----------X  X------------ TO BUS ------------X
   BUS#-SCT X-- NAME --X BASKV AREA    BUS#-SCT X-- NAME --X BASKV AREA  CKT

                                  ** NONE **


 OUT-OF-SERVICE THREE-WINDING TRANSFORMERS:

                                          X-------- WINDING 1 BUS ---------X X-------- WINDING 2 BUS ---------X X-------- WINDING 3 BUS ---------X
 X---------- TRANSFORMER NAME ----------X   BUS#-SCT X-- NAME --X BASKV AREA   BUS#-SCT X-- NAME --X BASKV AREA   BUS#-SCT X-- NAME --X BASKV AREA CKT

                                  ** NONE **


 ISOLATED BUSES:

 X-------------- BUS --------------X  X-------------- BUS --------------X  X-------------- BUS --------------X
   BUS#-SCT X-- NAME --X BASKV  AREA    BUS#-SCT X-- NAME --X BASKV  AREA    BUS#-SCT X-- NAME --X BASKV  AREA

                                  ** NONE **


 OUT-OF-SERVICE PLANTS:

 X-------------- BUS --------------X  X-------------- BUS --------------X  X-------------- BUS --------------X
   BUS#-SCT X-- NAME --X BASKV  AREA    BUS#-SCT X-- NAME --X BASKV  AREA    BUS#-SCT X-- NAME --X BASKV  AREA

                                  ** NONE **


 OUT-OF-SERVICE MACHINES AT IN-SERVICE PLANTS:

 X--------------- BUS ---------------X  X--------------- BUS ---------------X  X--------------- BUS ---------------X
   BUS#-SCT X-- NAME --X BASKV ID AREA    BUS#-SCT X-- NAME --X BASKV ID AREA    BUS#-SCT X-- NAME --X BASKV ID AREA

                                  ** NONE **


 OUT-OF-SERVICE INDUCTION MACHINES AT IN-SERVICE BUSES:

 X--------------- BUS ---------------X  X--------------- BUS ---------------X  X--------------- BUS ---------------X
   BUS#-SCT X-- NAME --X BASKV ID AREA    BUS#-SCT X-- NAME --X BASKV ID AREA    BUS#-SCT X-- NAME --X BASKV ID AREA

                                  ** NONE **


 OUT-OF-SERVICE LOADS AT IN-SERVICE BUSES:

 X--------------- BUS ---------------X  X--------------- BUS ---------------X  X--------------- BUS ---------------X
   BUS#-SCT X-- NAME --X BASKV ID AREA    BUS#-SCT X-- NAME --X BASKV ID AREA    BUS#-SCT X-- NAME --X BASKV ID AREA

                                  ** NONE **


 OUT-OF-SERVICE FIXED SHUNTS AT IN-SERVICE BUSES:

 X--------------- BUS ---------------X  X--------------- BUS ---------------X  X--------------- BUS ---------------X
   BUS#-SCT X-- NAME --X BASKV ID AREA    BUS#-SCT X-- NAME --X BASKV ID AREA    BUS#-SCT X-- NAME --X BASKV ID AREA

                                  ** NONE **


 BLOCKED TWO-TERMINAL DC LINES:

 X-2TERM DC-X  X-------- RECTIFIER --------X  X-------- INVERTER ---------X
 X-- NAME --X    BUS#-SCT X-- NAME --X BASKV    BUS#-SCT X-- NAME --X BASKV

                                  ** NONE **


 BLOCKED MULTI-TERMINAL DC LINES:

 X-MTERM DC-X  X-------- CONVERTER --------X  X-------- CONVERTER --------X  X-------- CONVERTER --------X
 X-- NAME --X    BUS#-SCT X-- NAME --X BASKV    BUS#-SCT X-- NAME --X BASKV    BUS#-SCT X-- NAME --X BASKV

                                  ** NONE **


 BLOCKED VSC DC LINES:

 X--VSC DC--X  X------ CONVERTER BUS ------X  X------ CONVERTER BUS ------X
 X-- NAME --X    BUS#-SCT X-- NAME --X BASKV    BUS#-SCT X-- NAME --X BASKV

                                  ** NONE **


 OUT-OF-SERVICE CONVERTERS AT IN-SERVICE VSC DC LINES:

 X--VSC DC--X  X------ CONVERTER BUS ------X  X------ CONVERTER BUS ------X
 X-- NAME --X    BUS#-SCT X-- NAME --X BASKV    BUS#-SCT X-- NAME --X BASKV

                                  ** NONE **


 BLOCKED FACTS CONTROL DEVICES:

 X--DEVICE--X  X------- SENDING BUS -------X  X------ TERMINAL BUS -------X
 X-- NAME --X    BUS#-SCT X-- NAME --X BASKV    BUS#-SCT X-- NAME --X BASKV

                                  ** NONE **


 OUT-OF-SERVICE GNE DEVICES:

 X--DEVICE--X  X-------- FROM BUS ---------X  X--------- TO BUS ----------X
 X-- NAME --X    BUS#-SCT X-- NAME --X BASKV    BUS#-SCT X-- NAME --X BASKV

                                  ** NONE **

 Output completed
 Batch command complete.
 :      PTI INTERACTIVE POWER SYSTEM SIMULATOR--PSS(R)E     THU, SEP 10 2026  11:24
 SUITE_U_GENQ_5BUS_GROUP_ONE_LIMITED                                       SHUNT
 PARTIAL GROUPED GENQ LIMIT                                              SUMMARY

                                                 N O M I N A L
   BUS#-SCT X-- NAME --X BASKV CODE ID STAT       MW      MVAR  VOLTAGE  TYPE    MODE ADJM     BMIN      BMAX

                                    * NONE *

 Output completed
 Batch command complete.
 :      PTI INTERACTIVE POWER SYSTEM SIMULATOR--PSS(R)E     THU, SEP 10 2026  11:24
 SUITE_U_GENQ_5BUS_GROUP_ONE_LIMITED                              SYSTEM SUMMARY
 PARTIAL GROUPED GENQ LIMIT

 ---------------------BUSES----------------------        -----GENERATION----- ----SHUNTS----- -IND MACHS- FACTS   GNE
  TOTAL  PQ<>0.  PQ=0.  PE/E   PE/Q  SWING  OTHER  LOADS PLANTS MACHNS   WIND  FIXED SWITCHED GENS MOTORS  DEVS  DEVS
      5      1      1      1      1      1      0      1      3      3      0      0      0      0      0     0     0
 ------------------AC BRANCHES------------------- 3WIND MULTI-SECTION ---DC LINES--                    AREA X------- SWING BUSES -------X
  TOTAL    RXB     RX    RXT   RX=0.    IN    OUT XFORM  LINES SECTNS 2TRM MTRM VSC AREAS ZONES OWNRS TRANS      1     SLACK       230.00
      5      0      5      0      0      5      0     0      0      0    0    0   0     1     1     1     0
      ----GENERATION---- INDUCTION                                       GNE
 TOTAL   SYNCHR  INDUCTN   MOTORS   PQLOAD   I LOAD   Y LOAD   SHUNTS  DEVICES CHARGING   LOSSES    SWING
 MW       103.9      0.0      0.0    100.0      0.0      0.0      0.0      0.0      0.0      3.9    -56.1
 MVAR      88.1      0.0      0.0     50.0      0.0      0.0     -0.0      0.0      0.0     38.1   -271.3

 TOTAL MISMATCH =    0.19 MVA X--------- AT BUS ----------X   THRSHZ  PQBRAK BLOWUP  SBASE MXTPSS
  MAX. MISMATCH =    0.10 MVA      3     GEN_B_FREE  230.00  0.000100  0.700   5.00 100.00   20
   HIGH VOLTAGE = 1.10138 PU       3     GEN_B_FREE  230.00   ADJTHR  ACCTAP TAPLIM SWVBND MXSWIM
   LOW  VOLTAGE = 1.00000 PU       1     SLACK       230.00   0.0050  1.0000 0.0500  100.0   10

 X------ SOLV AND MSLV ------X  X----------------- NEWTON ------------------X  X----- TYSL -----X
  ACCP  ACCQ  ACCM   TOL  ITER  ACCN  TOLN  VCTOLQ  VCTOLV ITER  DVLIM NDVFCT  ACCTY    TOL  ITER
 1.600 1.600 1.000 0.00010 100  1.00 0.1000 0.1000 0.000010  20 0.9900 0.9900  1.000 0.000010  20
     PTI INTERACTIVE POWER SYSTEM SIMULATOR--PSS(R)E     THU, SEP 10 2026  11:24
 SUITE_U_GENQ_5BUS_GROUP_ONE_LIMITED                                     WORST
 PARTIAL GROUPED GENQ LIMIT                                           MISMATCHES
   BUS#-SCT X-- NAME --X BASKV       MW       MVAR       MVA
      3     GEN_B_FREE  230.00      0.00     -0.10      0.10
      5     REMOTE_BUS  230.00      0.00      0.10      0.10
     PTI INTERACTIVE POWER SYSTEM SIMULATOR--PSS(R)E     THU, SEP 10 2026  11:24
 SUITE_U_GENQ_5BUS_GROUP_ONE_LIMITED                                  RATING SET
 PARTIAL GROUPED GENQ LIMIT                                          UTILIZATION
 RATING SET  -NAME-  X---------DESCRIPTION----------X  # NON-ZERO RATINGS
      1      RATE1   RATING SET 1                                 5
      2      RATE2   RATING SET 2                                 5
      3      RATE3   RATING SET 3                                 5
      4      RATE4   RATING SET 4                                 0
      5      RATE5   RATING SET 5                                 0
      6      RATE6   RATING SET 6                                 0
      7      RATE7   RATING SET 7                                 0
      8      RATE8   RATING SET 8                                 0
      9      RATE9   RATING SET 9                                 0
     10      RATE10  RATING SET 10                                0
     11      RATE11  RATING SET 11                                0
     12      RATE12  RATING SET 12                                0

 Output completed
 Batch command complete.
 :      PTI INTERACTIVE POWER SYSTEM SIMULATOR--PSS(R)E     THU, SEP 10 2026  11:24
 SUITE_U_GENQ_5BUS_GROUP_ONE_LIMITED                                    BUS DATA
 PARTIAL GROUPED GENQ LIMIT
                                           S H U N T S                                 X--- NORMAL --X  X- EMERGENCY -X
   BUS#-SCT X-- NAME --X BASKV CODE LOADS FIXED SWITCHED  VOLT   ANGLE AREA ZONE OWNER   VMAX    VMIN     VMAX    VMIN
      1     SLACK       230.00   3    0     0      0    1.00000    0.0    1    1    1  1.10000 0.90000  1.10000 0.90000
      2     GEN_A_LIM   230.00  -2    0     0      0    1.03716    0.6    1    1    1  1.10000 0.90000  1.10000 0.90000
      3     GEN_B_FREE  230.00   2    0     0      0    1.10138    0.2    1    1    1  1.10000 0.90000  1.10000 0.90000
      4     TIE         230.00   1    0     0      0    1.05588   -0.6    1    1    1  1.10000 0.90000  1.10000 0.90000
      5     REMOTE_BUS  230.00   1    1     0      0    1.02000   -3.6    1    1    1  1.10000 0.90000  1.10000 0.90000

 Output completed
 Batch command complete.
 :      PTI INTERACTIVE POWER SYSTEM SIMULATOR--PSS(R)E     THU, SEP 10 2026  11:24
 SUITE_U_GENQ_5BUS_GROUP_ONE_LIMITED                                   SWITCHED
 PARTIAL GROUPED GENQ LIMIT                                           SHUNT DATA
                                   S ADJ                                                                       X-------- REGULATED BUS ---------X X--FACTS/--X
   BUS#-SCT X-- NAME --X BASKV MOD T METH VHI    VLO     SHUNT  X-------X X-------X X-------X X-------X  PCT Q   BUS#-SCT X-- NAME --X BASKV NODE X-VSC NAME-X

                                    * NONE *

 Output completed
 Batch command complete.
 :      PTI INTERACTIVE POWER SYSTEM SIMULATOR--PSS(R)E     THU, SEP 10 2026  11:24
 SUITE_U_GENQ_5BUS_GROUP_ONE_LIMITED                                  GENERATING
 PARTIAL GROUPED GENQ LIMIT                                           PLANT DATA
                                                                                       X-------- REGULATED BUS ---------X
   BUS#-SCT X-- NAME --X BASKV COD MCNS PGEN   QGEN   QMAX   QMIN VSCHED  VACT.  PCT Q   BUS#-SCT X-- NAME --X BASKV NODE
      1     SLACK       230.00  3   1  -56.1 -271.3  400.0 -400.0 1.0000 1.0000  100.0      1     SLACK       230.00    0
      2     GEN_A_LIM   230.00 -2   1   80.0   20.0   20.0 -200.0 1.0200 1.0200   60.0      5     REMOTE_BUS  230.00    0
      3     GEN_B_FREE  230.00  2   1   80.0  339.5  400.0 -400.0 1.0200 1.0200   40.0      5     REMOTE_BUS  230.00    0

 Output completed
 Batch command complete.
 :      PTI INTERACTIVE POWER SYSTEM SIMULATOR--PSS(R)E     THU, SEP 10 2026  11:24
 SUITE_U_GENQ_5BUS_GROUP_ONE_LIMITED                                   GENERATOR
 PARTIAL GROUPED GENQ LIMIT                                            UNIT DATA
   BUS#-SCT X-- NAME --X BASKV CD ID ST  PGEN   QGEN   QMAX   QMIN   PMAX   PMIN  OWN FRACT  OWN FRACT  MBASE  Z S O R C E    X T R A N    GENTAP WMOD  WPF
      1     SLACK       230.00  3 1  1  -56.1 -271.3  400.0 -400.0  400.0 -100.0    1 1.000             100.0 0.0000 1.0000
      2     GEN_A_LIM   230.00 -2 1  1   80.0   20.0   20.0 -200.0  150.0    0.0    1 1.000             100.0 0.0000 1.0000
      3     GEN_B_FREE  230.00  2 1  1   80.0  339.5  400.0 -400.0  150.0    0.0    1 1.000             100.0 0.0000 1.0000

 Output completed
 Batch command complete.
 :      PTI INTERACTIVE POWER SYSTEM SIMULATOR--PSS(R)E     THU, SEP 10 2026  11:24
 SUITE_U_GENQ_5BUS_GROUP_ONE_LIMITED                                 BRANCH DATA
 PARTIAL GROUPED GENQ LIMIT
 X-------- FROM BUS ---------X  X--------- TO BUS ----------X                                Z S
   BUS#-SCT X-- NAME --X BASKV    BUS#-SCT X-- NAME --X BASKV CKT   R (PU)   X (PU)   B (PU) I T  RATE1  RATE2  RATE3 LENGTH OWN1 FRAC1 OWN2 FRAC2 OWN3 FRAC3 OWN4 FRAC4
      1     SLACK       230.00*      2     GEN_A_LIM   230.00  1   0.00500  0.05000  0.00000   1  300.0  300.0  300.0   10.0    1 1.000
      1     SLACK       230.00*      3     GEN_B_FREE  230.00  1   0.00500  0.05000  0.00000   1  300.0  300.0  300.0   10.0    1 1.000
      2     GEN_A_LIM   230.00*      4     TIE         230.00  1   0.00500  0.04000  0.00000   1  300.0  300.0  300.0   10.0    1 1.000
      3     GEN_B_FREE  230.00*      4     TIE         230.00  1   0.00500  0.04000  0.00000   1  300.0  300.0  300.0   10.0    1 1.000
      4     TIE         230.00*      5     REMOTE_BUS  230.00  1   0.00500  0.06000  0.00000   1  300.0  300.0  300.0   10.0    1 1.000

 Output completed
 Batch command complete.
 :      PTI INTERACTIVE POWER SYSTEM SIMULATOR--PSS(R)E     THU, SEP 10 2026  11:24
 SUITE_U_GENQ_5BUS_GROUP_ONE_LIMITED                                 BRANCH DATA
 PARTIAL GROUPED GENQ LIMIT
 X-------- FROM BUS ---------X  X--------- TO BUS ----------X                                Z S
   BUS#-SCT X-- NAME --X BASKV    BUS#-SCT X-- NAME --X BASKV CKT   R (PU)   X (PU)   B (PU) I T  RATE1  RATE2  RATE3 LENGTH OWN1 FRAC1 OWN2 FRAC2 OWN3 FRAC3 OWN4 FRAC4
      1     SLACK       230.00*      2     GEN_A_LIM   230.00  1   0.00500  0.05000  0.00000   1  300.0  300.0  300.0   10.0    1 1.000
      1     SLACK       230.00*      3     GEN_B_FREE  230.00  1   0.00500  0.05000  0.00000   1  300.0  300.0  300.0   10.0    1 1.000
      2     GEN_A_LIM   230.00       1     SLACK       230.00* 1   0.00500  0.05000  0.00000   1  300.0  300.0  300.0   10.0    1 1.000
      2     GEN_A_LIM   230.00*      4     TIE         230.00  1   0.00500  0.04000  0.00000   1  300.0  300.0  300.0   10.0    1 1.000
      3     GEN_B_FREE  230.00       1     SLACK       230.00* 1   0.00500  0.05000  0.00000   1  300.0  300.0  300.0   10.0    1 1.000
      3     GEN_B_FREE  230.00*      4     TIE         230.00  1   0.00500  0.04000  0.00000   1  300.0  300.0  300.0   10.0    1 1.000
      4     TIE         230.00       2     GEN_A_LIM   230.00* 1   0.00500  0.04000  0.00000   1  300.0  300.0  300.0   10.0    1 1.000
      4     TIE         230.00       3     GEN_B_FREE  230.00* 1   0.00500  0.04000  0.00000   1  300.0  300.0  300.0   10.0    1 1.000
      4     TIE         230.00*      5     REMOTE_BUS  230.00  1   0.00500  0.06000  0.00000   1  300.0  300.0  300.0   10.0    1 1.000
      5     REMOTE_BUS  230.00       4     TIE         230.00* 1   0.00500  0.06000  0.00000   1  300.0  300.0  300.0   10.0    1 1.000

 Output completed
 Batch command complete.
 :      PTI INTERACTIVE POWER SYSTEM SIMULATOR--PSS(R)E     THU, SEP 10 2026  11:24
 SUITE_U_GENQ_5BUS_GROUP_ONE_LIMITED
 PARTIAL GROUPED GENQ LIMIT                                         DC LINE DATA

                                    * NONE *

 Output completed
 Batch command complete.
 :      PTI INTERACTIVE POWER SYSTEM SIMULATOR--PSS(R)E     THU, SEP 10 2026  11:24
 SUITE_U_GENQ_5BUS_GROUP_ONE_LIMITED                                   LOAD DATA
 PARTIAL GROUPED GENQ LIMIT
   BUS#-SCT X-- NAME --X BASKV ID CD ST   PSI     MVA-LOAD      CUR-LOAD      Y - LOAD  AREA ZONE OWNER SCALE INTRPT     DGEN-MVA  DGEN-FLAG
      5     REMOTE_BUS  230.00 1   1 1  1.000  100.0   50.0    0.0    0.0    0.0    0.0    1    1    1   YES     NO     0.0    0.0     OFF

 Output completed
 Batch command complete.
 :      PTI INTERACTIVE POWER SYSTEM SIMULATOR--PSS(R)E     THU, SEP 10 2026  11:24
 SUITE_U_GENQ_5BUS_GROUP_ONE_LIMITED                               FACTS SENDING
 PARTIAL GROUPED GENQ LIMIT                                           END DATA
 X- DEVICE -X X------- SENDING BUS -------X X------ TERMINAL BUS -------X                                         X-------- REGULATED BUS ---------X X- MASTER -X
 X-- NAME --X   BUS#-SCT X-- NAME --X BASKV   BUS#-SCT X-- NAME --X BASKV MODE  V SET SHNTMX  PCT Q  BRDGMX OWNER   BUS#-SCT X-- NAME --X BASKV NODE X-- NAME --X

                                    * NONE *

 Output completed
 Batch command complete.
 :      PTI INTERACTIVE POWER SYSTEM SIMULATOR--PSS(R)E     THU, SEP 10 2026  11:24
 SUITE_U_GENQ_5BUS_GROUP_ONE_LIMITED                              FACTS TERMINAL
 PARTIAL GROUPED GENQ LIMIT                                          END DATA
 X- DEVICE -X X------- SENDING BUS -------X X------ TERMINAL BUS -------X
 X-- NAME --X   BUS#-SCT X-- NAME --X BASKV   BUS#-SCT X-- NAME --X BASKV MODE  PDES   QDES  VTMAX  VTMIN  VSMAX ISMAX  LINE X VSREF   SET1     SET2

                                    * NONE *

 Output completed
 Batch command complete.
 :      PTI INTERACTIVE POWER SYSTEM SIMULATOR--PSS(R)E     THU, SEP 10 2026  11:24
 SUITE_U_GENQ_5BUS_GROUP_ONE_LIMITED                                     FIXED
 PARTIAL GROUPED GENQ LIMIT                                           SHUNT DATA
   BUS#-SCT X-- NAME --X BASKV ID CODE STAT       S H U N T

                                    * NONE *

 Output completed
 Batch command complete.
 :      PTI INTERACTIVE POWER SYSTEM SIMULATOR--PSS(R)E     THU, SEP 10 2026  11:24
 SUITE_U_GENQ_5BUS_GROUP_ONE_LIMITED                                 AREA TOTALS
 PARTIAL GROUPED GENQ LIMIT                                           IN MW/MVAR
                 FROM ---ASSIGNED TO THE AREA---              TO                               -NET INTERCHANGE-
                GENE- FROM IND   TO IND       TO   TO BUS  GNE BUS  TO LINE     FROM     TO     TO TIE  TO TIES  DESIRED
 X-- AREA --X  RATION GENERATN   MOTORS     LOAD    SHUNT  DEVICES    SHUNT CHARGING   LOSSES    LINES  + LOADS  NET INT

    1           103.9      0.0      0.0    100.0      0.0      0.0      0.0      0.0      3.9      0.0      0.0      0.0
 AREA1           88.1      0.0      0.0     50.0     -0.0      0.0     -0.0      0.0     38.1      0.0      0.0

 COLUMN         103.9      0.0      0.0    100.0      0.0      0.0      0.0      0.0      3.9      0.0      0.0      0.0
 TOTALS          88.1      0.0      0.0     50.0      0.0      0.0      0.0      0.0     38.1      0.0      0.0

 Output completed
 Batch command complete.
 :      PTI INTERACTIVE POWER SYSTEM SIMULATOR--PSS(R)E     THU, SEP 10 2026  11:24
 SUITE_U_GENQ_5BUS_GROUP_ONE_LIMITED                                 ZONE TOTALS
 PARTIAL GROUPED GENQ LIMIT                                           IN MW/MVAR
                 FROM ---ASSIGNED TO THE ZONE---              TO                               -NET INTERCHANGE-
                GENE- FROM IND   TO IND       TO   TO BUS  GNE BUS  TO LINE     FROM     TO     TO TIE  TO TIES
 X-- ZONE --X  RATION GENERATN   MOTORS     LOAD    SHUNT  DEVICES    SHUNT CHARGING   LOSSES    LINES  + LOADS

    1           103.9      0.0      0.0    100.0      0.0      0.0      0.0      0.0      3.9      0.0      0.0
 ZONE1           88.1      0.0      0.0     50.0     -0.0      0.0     -0.0      0.0     38.1      0.0      0.0

 COLUMN         103.9      0.0      0.0    100.0      0.0      0.0      0.0      0.0      3.9      0.0      0.0
 TOTALS          88.1      0.0      0.0     50.0      0.0      0.0      0.0      0.0     38.1      0.0      0.0

 Output completed
 Batch command complete.
 : 
 Output completed
 Batch command complete.
 : 
 Case saved in file C:\Users\Santiago\Documents\PROYECTO FINAL DE CARRERA - MATPOWER\outputs\reanudacion_20260910\psse_suite\suite_u_genq_5bus_group_one_limited.sav on THU, SEP 10 2026  11:24
 Batch command complete.
 : 